/*--------------------------------*- C++ -*----------------------------------*\
  =========                 |
  \\      /  F ield         | OpenFOAM: The Open Source CFD Toolbox
   \\    /   O peration     | Website:  https://openfoam.org
    \\  /    A nd           | Version:  7
     \\/     M anipulation  |
\*---------------------------------------------------------------------------*/
FoamFile
{
    version     2.0;
    format      ascii;
    class       dictionary;
    location    "system";
    object      topoSetDict;
}
// * * * * * * * * * * * * * * * * * * * * * * * * * * * * * * * * * * * * * //

actions
(

	{
		name	INTERF1;
		type	faceSet;
		action  new;
		source  patchToFace;
		sourceInfo
		{
			patch	AMI1_1;
		}
	}


	{
		name	INTERF1;
		type	faceSet;
		action  add;
		source  patchToFace;
		sourceInfo
		{
			patch	AMI1_2;
		}
	}


	{
		name	INTERF2;
		type	faceSet;
		action  new;
		source  patchToFace;
		sourceInfo
		{
			patch	AMI2_1;
		}
	}


	{
		name	INTERF2;
		type	faceSet;
		action  add;
		source  patchToFace;
		sourceInfo
		{
			patch	AMI2_2;
		}
	}

);

// ************************************************************************* //
